version 2
1
9
.tran 10m 3 0{return}.kicad adjustpaths{return}.save all{return}.probe alli
3
2
I(C1)
 
1
V(Net-_C1-Pad1_)
 
1
V(Net-_J2-Pin_1_)
 
