version 2
1
9
.tran 2m 1 0{return}.kicad adjustpaths{return}.save all{return}.probe alli
2
1
V(Net-_D3-A_)
 
1
V(Net-_R5-Pad2_)
 
