version 2
1
9
.tran 1m 1 0{return}.kicad adjustpaths{return}.save all{return}.probe alli
2
1
V(Net-_D5-K_)
 
1
V(Net-_R9-Pad2_)
 
