version 2
1
9
.tran 400u 200m 0{return}.kicad adjustpaths{return}.save all{return}.probe alli
4
1
V(Net-_C2-Pad1_)
 
1
V(Net-_C3-Pad1_)
 
1
V(Net-_D1-K_)
 
1
V(Net-_D2-A_)
 
