version 2
1
9
.tran 1m 20 0{return}.kicad adjustpaths{return}.save all{return}.probe alli
3
2
I(L1)
 
1
V(Net-_J2-Pin_1_)
 
1
V(Net-_L1-Pad1_)
 
