version 2
1
9
.tran 10m 5 0{return}.kicad adjustpaths{return}.save all{return}.probe alli
2
2
I(RL4)
 
1
V(Net-_R9-Pad1_)
 
